/*--------------------------------*- C++ -*----------------------------------*\
| =========                 |                                                 |
| \\      /  F ield         | OpenFOAM: The Open Source CFD Toolbox           |
|  \\    /   O peration     | Version:  v1912                                 |
|   \\  /    A nd           | Website:  www.openfoam.com                      |
|    \\/     M anipulation  |                                                 |
\*---------------------------------------------------------------------------*/
FoamFile
{
    version     2.0;
    format      ascii;
    class       dictionary;
    object      setExprFieldsDict;
}
// * * * * * * * * * * * * * * * * * * * * * * * * * * * * * * * * * * * * * //


expressions
(
    pulse_p
    {
        field       p;
	dimensions      [1 -1 -2 0 0 0 0];

        constants
        {
            centre (0 0 0);
	    alpha 0.00855737; // ln(2)/9^2
        }

        variables
        (
            "radius = 100.0"
			"y0 = 0.0"
			"x0 = 0.0"
			"alpha = 0.00855737"
        );

        condition
        #{
            (mag(pos() - $[(vector)constants.centre]) < radius)
//          && pos((pos() - $[(vector)constants.centre]).y()) > 0
        #};

        expression
        #{
			  exp(-(alpha)*(((pos().x()-x0)*(pos().x()-x0))+((pos().y()-y0)*(pos().y()-y0))))

        #};
    }
    
        pulse_rho
    {
        field       rho;
	dimensions      [1 -3 0 0 0 0 0];

        constants
        {
            centre (0 0 0);
	    alpha 0.00855737; // ln(2)/9^2
        }

        variables
        (
            "radius = 100.0"
			"y0 = 0.0"
			"x0 = 0.0"
			"alpha = 0.00855737"
			"c0 = 341.5650"
        );

        condition
        #{
            (mag(pos() - $[(vector)constants.centre]) < radius)
//          && pos((pos() - $[(vector)constants.centre]).y()) > 0
        #};

        expression
        #{
			  exp(-(alpha)*(((pos().x()-x0)*(pos().x()-x0))+((pos().y()-y0)*(pos().y()-y0)))) / pow(c0,2)

        #};
    }
	

    


);


// ************************************************************************* //
