/*--------------------------------*- C++ -*----------------------------------*\
| =========                 |                                                 |
| \\      /  F ield         | OpenFOAM: The Open Source CFD Toolbox           |
|  \\    /   O peration     | Version:  4.0                                   |
|   \\  /    A nd           | Web:      www.OpenFOAM.org                      |
|    \\/     M anipulation  |                                                 |
\*---------------------------------------------------------------------------*/
FoamFile
{
    version     2.0;
    format      ascii;
    class       volScalarField;
    object      rho;
}
// * * * * * * * * * * * * * * * * * * * * * * * * * * * * * * * * * * * * * //

dimensions      [1 -3 0 0 0 0 0];

internalField   uniform 0;

boundaryField
{
	inlet
    {
		type			zeroGradient;
    }	
    outlet
    {
		type				acousticWaveTransmissive;
		advectiveSpeed      1;
		value 				uniform 0;
    }

    sides
    {
		type			zeroGradient;
    }

    empty
    {
        type            empty;
    }
}

// ************************************************************************* //
