/*--------------------------------*- C++ -*----------------------------------*\
| =========                 |                                                 |
| \\      /  F ield         | OpenFOAM: The Open Source CFD Toolbox           |
|  \\    /   O peration     | Version:  4.0                                   |
|   \\  /    A nd           | Web:      www.OpenFOAM.org                      |
|    \\/     M anipulation  |                                                 |
\*---------------------------------------------------------------------------*/
FoamFile
{
    version     2.0;
    format      ascii;
    class       dictionary;
    object      blockMeshDict;
}
// * * * * * * * * * * * * * * * * * * * * * * * * * * * * * * * * * * * * * //


convertToMeters 1;

vertices
(
    (-100 -100 -1)//reaching from -100m
    (100 -100 -1)//to 100m in the x direction
    (100 100 -1)
    (-100 100 -1)
    (-100 -100 1)
    (100 -100 1)
    (100 100 1)
    (-100 100 1)
);

blocks
(
    hex (0 1 2 3 4 5 6 7) (100 100 1) simpleGrading (1 1 1)
);

edges
(
);

boundary
(
    sides
    {
        type patch;//the two faces below define this patch
        faces
        (
            (1 2 6 5)//number of vertices defining this face
            (0 4 7 3)
			(0 1 5 4)
			(3 7 6 2)
        );
    }
    empty
    {
        type empty;
        faces
        (
            (5 6 7 4)
            (0 3 2 1)
        );
    }
);

mergePatchPairs
(
);

// ************************************************************************* //
